 xtb: 6.6.1 (8d0f1dd)
          09242423593D

 84 94  0     0  0            999 V2000
    0.1136   -0.4921    0.1350 C   0  0  0  0  0  0  0  0  0  0  0  0
   -2.0474   -0.6219   -1.0643 C   0  0  0  0  0  0  0  0  0  0  0  0
   -1.3761   -0.8817   -2.2744 C   0  0  0  0  0  0  0  0  0  0  0  0
    0.0656   -1.0154   -2.2457 C   0  0  0  0  0  0  0  0  0  0  0  0
    0.6988   -1.1226   -0.9684 C   0  0  0  0  0  0  0  0  0  0  0  0
    2.2056   -1.5004   -3.3698 C   0  0  0  0  0  0  0  0  0  0  0  0
    0.8444   -1.1014   -3.3721 C   0  0  0  0  0  0  0  0  0  0  0  0
    1.9457   -1.8557   -0.9402 C   0  0  0  0  0  0  0  0  0  0  0  0
    2.7352   -1.9892   -2.1053 C   0  0  0  0  0  0  0  0  0  0  0  0
    0.3931   -0.9101   -4.3336 H   0  0  0  0  0  0  0  0  0  0  0  0
    4.0154   -2.5413   -1.9599 C   0  0  0  0  0  0  0  0  0  0  0  0
    4.4250   -3.1056   -0.7745 C   0  0  0  0  0  0  0  0  0  0  0  0
    3.5576   -3.1514    0.3132 C   0  0  0  0  0  0  0  0  0  0  0  0
    2.3460   -2.5113    0.2342 C   0  0  0  0  0  0  0  0  0  0  0  0
    4.6992   -2.5321   -2.7915 H   0  0  0  0  0  0  0  0  0  0  0  0
    5.4137   -3.5333   -0.6984 H   0  0  0  0  0  0  0  0  0  0  0  0
    3.8457   -3.6625    1.2195 H   0  0  0  0  0  0  0  0  0  0  0  0
    1.6821   -2.5059    1.0852 H   0  0  0  0  0  0  0  0  0  0  0  0
    2.8860   -1.4916   -4.5878 C   0  0  0  0  0  0  0  0  0  0  0  0
    2.0693    0.7287   -5.3513 C   0  0  0  0  0  0  0  0  0  0  0  0
    1.7145    1.6037   -6.3579 C   0  0  0  0  0  0  0  0  0  0  0  0
    1.7527    1.1983   -7.6830 C   0  0  0  0  0  0  0  0  0  0  0  0
    2.1566   -0.0909   -7.9933 C   0  0  0  0  0  0  0  0  0  0  0  0
    2.5192   -0.9683   -6.9912 C   0  0  0  0  0  0  0  0  0  0  0  0
    2.4746   -0.5785   -5.6480 C   0  0  0  0  0  0  0  0  0  0  0  0
    2.0591    1.0572   -4.3220 H   0  0  0  0  0  0  0  0  0  0  0  0
    1.4108    2.6101   -6.1093 H   0  0  0  0  0  0  0  0  0  0  0  0
    1.4727    1.8837   -8.4689 H   0  0  0  0  0  0  0  0  0  0  0  0
    2.1863   -0.4138   -9.0238 H   0  0  0  0  0  0  0  0  0  0  0  0
    2.8181   -1.9763   -7.2403 H   0  0  0  0  0  0  0  0  0  0  0  0
    3.8133   -3.7859   -4.7517 C   0  0  0  0  0  0  0  0  0  0  0  0
    4.7851   -4.6665   -5.1810 C   0  0  0  0  0  0  0  0  0  0  0  0
    5.9251   -4.1956   -5.8151 C   0  0  0  0  0  0  0  0  0  0  0  0
    6.0814   -2.8355   -6.0272 C   0  0  0  0  0  0  0  0  0  0  0  0
    5.1049   -1.9498   -5.6128 C   0  0  0  0  0  0  0  0  0  0  0  0
    3.9630   -2.4099   -4.9541 C   0  0  0  0  0  0  0  0  0  0  0  0
    2.9229   -4.1511   -4.2604 H   0  0  0  0  0  0  0  0  0  0  0  0
    4.6534   -5.7271   -5.0244 H   0  0  0  0  0  0  0  0  0  0  0  0
    6.6860   -4.8867   -6.1456 H   0  0  0  0  0  0  0  0  0  0  0  0
    6.9667   -2.4637   -6.5220 H   0  0  0  0  0  0  0  0  0  0  0  0
    5.2276   -0.8889   -5.7779 H   0  0  0  0  0  0  0  0  0  0  0  0
   -2.1246   -1.1860   -3.4147 C   0  0  0  0  0  0  0  0  0  0  0  0
   -3.4942   -1.3175   -3.3479 C   0  0  0  0  0  0  0  0  0  0  0  0
   -4.1374   -1.2127   -2.1210 C   0  0  0  0  0  0  0  0  0  0  0  0
   -3.4197   -0.8746   -0.9946 C   0  0  0  0  0  0  0  0  0  0  0  0
   -1.6242   -1.3657   -4.3539 H   0  0  0  0  0  0  0  0  0  0  0  0
   -4.0582   -1.5549   -4.2380 H   0  0  0  0  0  0  0  0  0  0  0  0
   -5.1982   -1.4012   -2.0473 H   0  0  0  0  0  0  0  0  0  0  0  0
   -3.9180   -0.8307   -0.0396 H   0  0  0  0  0  0  0  0  0  0  0  0
   -1.2835   -0.1728    0.0888 C   0  0  0  0  0  0  0  0  0  0  0  0
    0.8946   -0.0403    1.2756 C   0  0  0  0  0  0  0  0  0  0  0  0
    0.2479    0.3248    2.4783 C   0  0  0  0  0  0  0  0  0  0  0  0
   -1.1751    0.5030    2.4478 C   0  0  0  0  0  0  0  0  0  0  0  0
   -1.8589    0.4614    1.1770 C   0  0  0  0  0  0  0  0  0  0  0  0
   -3.2893    1.3102    2.7802 C   0  0  0  0  0  0  0  0  0  0  0  0
   -3.1572    1.0810    1.3870 C   0  0  0  0  0  0  0  0  0  0  0  0
   -2.0601    0.9186    3.4315 C   0  0  0  0  0  0  0  0  0  0  0  0
   -4.4485    1.8664    3.2991 C   0  0  0  0  0  0  0  0  0  0  0  0
   -5.4363    2.2841    2.4218 C   0  0  0  0  0  0  0  0  0  0  0  0
   -5.2585    2.1690    1.0502 C   0  0  0  0  0  0  0  0  0  0  0  0
   -4.1245    1.5673    0.5232 C   0  0  0  0  0  0  0  0  0  0  0  0
   -4.5737    1.9870    4.3653 H   0  0  0  0  0  0  0  0  0  0  0  0
   -6.3432    2.7271    2.8075 H   0  0  0  0  0  0  0  0  0  0  0  0
   -6.0172    2.5468    0.3803 H   0  0  0  0  0  0  0  0  0  0  0  0
   -4.0039    1.4943   -0.5476 H   0  0  0  0  0  0  0  0  0  0  0  0
   -2.1684    2.1252    5.5915 C   0  0  0  0  0  0  0  0  0  0  0  0
   -2.0310    2.1534    6.9668 C   0  0  0  0  0  0  0  0  0  0  0  0
   -1.6178    1.0226    7.6509 C   0  0  0  0  0  0  0  0  0  0  0  0
   -1.3323   -0.1381    6.9500 C   0  0  0  0  0  0  0  0  0  0  0  0
   -1.4592   -0.1701    5.5752 C   0  0  0  0  0  0  0  0  0  0  0  0
   -1.8806    0.9629    4.8758 C   0  0  0  0  0  0  0  0  0  0  0  0
   -2.4690    3.0147    5.0573 H   0  0  0  0  0  0  0  0  0  0  0  0
   -2.2475    3.0632    7.5082 H   0  0  0  0  0  0  0  0  0  0  0  0
   -1.5163    1.0460    8.7260 H   0  0  0  0  0  0  0  0  0  0  0  0
   -1.0097   -1.0226    7.4798 H   0  0  0  0  0  0  0  0  0  0  0  0
   -1.2400   -1.0755    5.0270 H   0  0  0  0  0  0  0  0  0  0  0  0
    1.0225    0.6869    3.5875 C   0  0  0  0  0  0  0  0  0  0  0  0
    2.3932    0.7556    3.5046 C   0  0  0  0  0  0  0  0  0  0  0  0
    3.0207    0.5346    2.2831 C   0  0  0  0  0  0  0  0  0  0  0  0
    2.2792    0.1586    1.1880 C   0  0  0  0  0  0  0  0  0  0  0  0
    0.5301    0.9544    4.5084 H   0  0  0  0  0  0  0  0  0  0  0  0
    2.9745    1.0325    4.3719 H   0  0  0  0  0  0  0  0  0  0  0  0
    4.0877    0.6724    2.1881 H   0  0  0  0  0  0  0  0  0  0  0  0
    2.7766    0.0393    0.2383 H   0  0  0  0  0  0  0  0  0  0  0  0
  2  3  4  0  0  0  0
  3  4  1  0  0  0  0
  1  5  4  0  0  0  0
  4  5  1  0  0  0  0
  4  7  4  0  0  0  0
  6  7  4  0  0  0  0
  5  8  1  0  0  0  0
  6  9  1  0  0  0  0
  8  9  4  0  0  0  0
  7 10  1  0  0  0  0
  9 11  4  0  0  0  0
 11 12  4  0  0  0  0
 12 13  4  0  0  0  0
  8 14  4  0  0  0  0
 13 14  4  0  0  0  0
 11 15  1  0  0  0  0
 12 16  1  0  0  0  0
 13 17  1  0  0  0  0
 14 18  1  0  0  0  0
  6 19  4  0  0  0  0
 20 21  4  0  0  0  0
 21 22  4  0  0  0  0
 22 23  4  0  0  0  0
 23 24  4  0  0  0  0
 19 25  1  0  0  0  0
 20 25  4  0  0  0  0
 24 25  4  0  0  0  0
 20 26  1  0  0  0  0
 21 27  1  0  0  0  0
 22 28  1  0  0  0  0
 23 29  1  0  0  0  0
 24 30  1  0  0  0  0
 31 32  4  0  0  0  0
 32 33  4  0  0  0  0
 33 34  4  0  0  0  0
 34 35  4  0  0  0  0
 19 36  1  0  0  0  0
 31 36  4  0  0  0  0
 35 36  4  0  0  0  0
 31 37  1  0  0  0  0
 32 38  1  0  0  0  0
 33 39  1  0  0  0  0
 34 40  1  0  0  0  0
 35 41  1  0  0  0  0
  3 42  4  0  0  0  0
 42 43  4  0  0  0  0
 43 44  4  0  0  0  0
  2 45  4  0  0  0  0
 44 45  4  0  0  0  0
 42 46  1  0  0  0  0
 43 47  1  0  0  0  0
 44 48  1  0  0  0  0
 45 49  1  0  0  0  0
  1 50  4  0  0  0  0
  2 50  1  0  0  0  0
  1 51  1  0  0  0  0
 51 52  4  0  0  0  0
 52 53  1  0  0  0  0
 50 54  4  0  0  0  0
 53 54  1  0  0  0  0
 54 56  1  0  0  0  0
 55 56  4  0  0  0  0
 53 57  4  0  0  0  0
 55 57  1  0  0  0  0
 55 58  4  0  0  0  0
 58 59  4  0  0  0  0
 59 60  4  0  0  0  0
 56 61  4  0  0  0  0
 60 61  4  0  0  0  0
 58 62  1  0  0  0  0
 59 63  1  0  0  0  0
 60 64  1  0  0  0  0
 61 65  1  0  0  0  0
 66 67  4  0  0  0  0
 67 68  4  0  0  0  0
 68 69  4  0  0  0  0
 69 70  4  0  0  0  0
 57 71  1  0  0  0  0
 66 71  4  0  0  0  0
 70 71  4  0  0  0  0
 66 72  1  0  0  0  0
 67 73  1  0  0  0  0
 68 74  1  0  0  0  0
 69 75  1  0  0  0  0
 70 76  1  0  0  0  0
 52 77  4  0  0  0  0
 77 78  4  0  0  0  0
 78 79  4  0  0  0  0
 51 80  4  0  0  0  0
 79 80  4  0  0  0  0
 77 81  1  0  0  0  0
 78 82  1  0  0  0  0
 79 83  1  0  0  0  0
 80 84  1  0  0  0  0
M  END
