 xtb: 6.6.1 (8d0f1dd)
          09252402393D

208232  0     0  0            999 V2000
    0.7818    0.3475    1.2047 C   0  0  0  0  0  0  0  0  0  0  0  0
   -0.6227    0.2737    1.2793 C   0  0  0  0  0  0  0  0  0  0  0  0
   -1.4057    0.3994    0.0971 C   0  0  0  0  0  0  0  0  0  0  0  0
   -0.7465    0.5364   -1.1590 C   0  0  0  0  0  0  0  0  0  0  0  0
    0.6477    0.3572   -1.2472 C   0  0  0  0  0  0  0  0  0  0  0  0
    1.4332    0.2922   -0.0617 C   0  0  0  0  0  0  0  0  0  0  0  0
    2.8247    0.2459   -0.1434 C   0  0  0  0  0  0  0  0  0  0  0  0
    3.4124   -0.1557   -1.3967 C   0  0  0  0  0  0  0  0  0  0  0  0
    2.6491   -0.0860   -2.5871 C   0  0  0  0  0  0  0  0  0  0  0  0
    1.2652    0.3216   -2.5169 C   0  0  0  0  0  0  0  0  0  0  0  0
    0.5134    0.6721   -3.6356 C   0  0  0  0  0  0  0  0  0  0  0  0
   -0.8237    1.0468   -3.5423 C   0  0  0  0  0  0  0  0  0  0  0  0
   -1.4950    0.8467   -2.3092 C   0  0  0  0  0  0  0  0  0  0  0  0
    0.9721    0.6507   -4.6100 H   0  0  0  0  0  0  0  0  0  0  0  0
   -2.8859    1.0982   -2.1968 C   0  0  0  0  0  0  0  0  0  0  0  0
   -3.5313    0.9842   -0.9380 C   0  0  0  0  0  0  0  0  0  0  0  0
   -2.7967    0.4577    0.1795 C   0  0  0  0  0  0  0  0  0  0  0  0
   -3.4205   -0.0262    1.3853 C   0  0  0  0  0  0  0  0  0  0  0  0
   -2.6593   -0.1458    2.5731 C   0  0  0  0  0  0  0  0  0  0  0  0
   -1.2465    0.1532    2.5407 C   0  0  0  0  0  0  0  0  0  0  0  0
   -0.4736    0.3201    3.6871 C   0  0  0  0  0  0  0  0  0  0  0  0
    0.8898    0.5929    3.6285 C   0  0  0  0  0  0  0  0  0  0  0  0
    1.5480    0.4717    2.3782 C   0  0  0  0  0  0  0  0  0  0  0  0
   -0.9368    0.2321    4.6557 H   0  0  0  0  0  0  0  0  0  0  0  0
    2.9552    0.6200    2.2872 C   0  0  0  0  0  0  0  0  0  0  0  0
    3.5947    0.5890    1.0206 C   0  0  0  0  0  0  0  0  0  0  0  0
   -4.8933    2.0343   -3.1531 C   0  0  0  0  0  0  0  0  0  0  0  0
   -5.4659    2.0672   -1.8935 C   0  0  0  0  0  0  0  0  0  0  0  0
   -4.8212    1.5125   -0.8079 C   0  0  0  0  0  0  0  0  0  0  0  0
   -3.6165    1.5043   -3.3419 C   0  0  0  0  0  0  0  0  0  0  0  0
   -5.4076    2.5056   -3.9763 H   0  0  0  0  0  0  0  0  0  0  0  0
   -6.4294    2.5375   -1.7589 H   0  0  0  0  0  0  0  0  0  0  0  0
   -5.2839    1.5663    0.1648 H   0  0  0  0  0  0  0  0  0  0  0  0
   -1.5679    1.5449   -4.6698 C   0  0  0  0  0  0  0  0  0  0  0  0
   -2.9596    1.5221   -4.6282 C   0  0  0  0  0  0  0  0  0  0  0  0
   -3.6824    1.5098   -5.8755 C   0  0  0  0  0  0  0  0  0  0  0  0
   -3.0085    1.8155   -7.0746 C   0  0  0  0  0  0  0  0  0  0  0  0
   -1.7007    2.3944   -6.9788 C   0  0  0  0  0  0  0  0  0  0  0  0
   -0.9466    2.1858   -5.8002 C   0  0  0  0  0  0  0  0  0  0  0  0
    0.3174    2.7858   -5.6921 C   0  0  0  0  0  0  0  0  0  0  0  0
    0.8814    3.5213   -6.7121 C   0  0  0  0  0  0  0  0  0  0  0  0
    0.1013    3.7543   -7.8523 C   0  0  0  0  0  0  0  0  0  0  0  0
   -1.1630    3.2357   -7.9645 C   0  0  0  0  0  0  0  0  0  0  0  0
    0.8262    2.7202   -4.7467 H   0  0  0  0  0  0  0  0  0  0  0  0
    0.4731    4.3901   -8.6419 H   0  0  0  0  0  0  0  0  0  0  0  0
   -1.7809    3.5260   -8.8008 H   0  0  0  0  0  0  0  0  0  0  0  0
   -3.6589    1.5548   -8.3210 C   0  0  0  0  0  0  0  0  0  0  0  0
   -5.0526    1.2969   -8.3323 C   0  0  0  0  0  0  0  0  0  0  0  0
   -5.7489    1.0956   -7.1150 C   0  0  0  0  0  0  0  0  0  0  0  0
   -5.0137    1.0774   -5.9357 C   0  0  0  0  0  0  0  0  0  0  0  0
   -5.4640    0.6878   -5.0392 H   0  0  0  0  0  0  0  0  0  0  0  0
   -7.1097    0.9178   -9.6011 C   0  0  0  0  0  0  0  0  0  0  0  0
   -7.8397    0.7975   -8.3923 C   0  0  0  0  0  0  0  0  0  0  0  0
   -7.1757    0.8778   -7.1437 C   0  0  0  0  0  0  0  0  0  0  0  0
   -5.7141    1.1604   -9.5805 C   0  0  0  0  0  0  0  0  0  0  0  0
   -2.9567    1.4862   -9.5323 C   0  0  0  0  0  0  0  0  0  0  0  0
   -4.9735    1.2388  -10.7719 C   0  0  0  0  0  0  0  0  0  0  0  0
   -3.5958    1.3561  -10.7605 C   0  0  0  0  0  0  0  0  0  0  0  0
   -1.8798    1.5009   -9.4945 H   0  0  0  0  0  0  0  0  0  0  0  0
   -5.5213    1.1527  -11.6954 H   0  0  0  0  0  0  0  0  0  0  0  0
   -1.9103    2.6193  -12.0928 C   0  0  0  0  0  0  0  0  0  0  0  0
   -2.7575    1.3401  -12.0301 C   0  0  0  0  0  0  0  0  0  0  0  0
   -1.2062    2.6716  -11.2668 H   0  0  0  0  0  0  0  0  0  0  0  0
   -1.3436    2.6474  -13.0213 H   0  0  0  0  0  0  0  0  0  0  0  0
   -2.5518    3.4977  -12.0548 H   0  0  0  0  0  0  0  0  0  0  0  0
   -1.8395    0.1104  -12.0027 C   0  0  0  0  0  0  0  0  0  0  0  0
   -2.4330   -0.8000  -11.9490 H   0  0  0  0  0  0  0  0  0  0  0  0
   -1.2331    0.0751  -12.9054 H   0  0  0  0  0  0  0  0  0  0  0  0
   -1.1729    0.1333  -11.1446 H   0  0  0  0  0  0  0  0  0  0  0  0
   -3.6137    1.2745  -13.2974 C   0  0  0  0  0  0  0  0  0  0  0  0
   -2.9673    1.2838  -14.1728 H   0  0  0  0  0  0  0  0  0  0  0  0
   -4.2033    0.3613  -13.3256 H   0  0  0  0  0  0  0  0  0  0  0  0
   -4.2812    2.1308  -13.3619 H   0  0  0  0  0  0  0  0  0  0  0  0
   -9.9435    0.5149   -7.2300 C   0  0  0  0  0  0  0  0  0  0  0  0
   -9.2357    0.6009   -8.3959 C   0  0  0  0  0  0  0  0  0  0  0  0
   -7.9389    0.8004   -5.9719 C   0  0  0  0  0  0  0  0  0  0  0  0
   -9.3067    0.6256   -5.9821 C   0  0  0  0  0  0  0  0  0  0  0  0
  -11.0121    0.3690   -7.2793 H   0  0  0  0  0  0  0  0  0  0  0  0
   -9.7413    0.5284   -9.3479 H   0  0  0  0  0  0  0  0  0  0  0  0
   -7.4314    0.8987   -5.0286 H   0  0  0  0  0  0  0  0  0  0  0  0
  -11.1784    1.6909   -4.7396 C   0  0  0  0  0  0  0  0  0  0  0  0
  -10.1390    0.5606   -4.7126 C   0  0  0  0  0  0  0  0  0  0  0  0
  -11.8500    1.5933   -5.5879 H   0  0  0  0  0  0  0  0  0  0  0  0
  -11.7751    1.6730   -3.8299 H   0  0  0  0  0  0  0  0  0  0  0  0
  -10.6816    2.6567   -4.8081 H   0  0  0  0  0  0  0  0  0  0  0  0
  -10.8506   -0.7985   -4.6516 C   0  0  0  0  0  0  0  0  0  0  0  0
  -10.1202   -1.6052   -4.6481 H   0  0  0  0  0  0  0  0  0  0  0  0
  -11.4475   -0.8688   -3.7445 H   0  0  0  0  0  0  0  0  0  0  0  0
  -11.5095   -0.9398   -5.5038 H   0  0  0  0  0  0  0  0  0  0  0  0
   -9.2994    0.7185   -3.4414 C   0  0  0  0  0  0  0  0  0  0  0  0
   -9.9496    0.6666   -2.5703 H   0  0  0  0  0  0  0  0  0  0  0  0
   -8.5610   -0.0757   -3.3552 H   0  0  0  0  0  0  0  0  0  0  0  0
   -8.7925    1.6808   -3.4242 H   0  0  0  0  0  0  0  0  0  0  0  0
   -8.3477    0.7044  -11.8877 C   0  0  0  0  0  0  0  0  0  0  0  0
   -7.7777    0.8003  -10.8306 C   0  0  0  0  0  0  0  0  0  0  0  0
   -8.8462    0.6193  -12.8068 H   0  0  0  0  0  0  0  0  0  0  0  0
    2.1678    5.6523   -6.6538 C   0  0  0  0  0  0  0  0  0  0  0  0
    2.2742    4.1218   -6.6160 C   0  0  0  0  0  0  0  0  0  0  0  0
    1.5589    6.0068   -5.8245 H   0  0  0  0  0  0  0  0  0  0  0  0
    3.1565    6.0992   -6.5723 H   0  0  0  0  0  0  0  0  0  0  0  0
    1.7142    5.9946   -7.5800 H   0  0  0  0  0  0  0  0  0  0  0  0
    3.0053    3.7204   -5.3310 C   0  0  0  0  0  0  0  0  0  0  0  0
    3.0914    2.6392   -5.2466 H   0  0  0  0  0  0  0  0  0  0  0  0
    4.0108    4.1365   -5.3426 H   0  0  0  0  0  0  0  0  0  0  0  0
    2.4970    4.1048   -4.4497 H   0  0  0  0  0  0  0  0  0  0  0  0
    3.1065    3.6281   -7.8084 C   0  0  0  0  0  0  0  0  0  0  0  0
    4.1140    4.0353   -7.7558 H   0  0  0  0  0  0  0  0  0  0  0  0
    3.1733    2.5419   -7.7962 H   0  0  0  0  0  0  0  0  0  0  0  0
    2.6672    3.9323   -8.7544 H   0  0  0  0  0  0  0  0  0  0  0  0
    5.0277    1.2833    3.3290 C   0  0  0  0  0  0  0  0  0  0  0  0
    5.6065    1.4037    2.0775 C   0  0  0  0  0  0  0  0  0  0  0  0
    4.9237    1.0219    0.9419 C   0  0  0  0  0  0  0  0  0  0  0  0
    3.7113    0.8413    3.4659 C   0  0  0  0  0  0  0  0  0  0  0  0
    5.5750    1.6210    4.1955 H   0  0  0  0  0  0  0  0  0  0  0  0
    6.6055    1.8061    1.9897 H   0  0  0  0  0  0  0  0  0  0  0  0
    5.3934    1.1413   -0.0216 H   0  0  0  0  0  0  0  0  0  0  0  0
    1.6671    0.9060    4.7994 C   0  0  0  0  0  0  0  0  0  0  0  0
    3.0525    0.7751    4.7496 C   0  0  0  0  0  0  0  0  0  0  0  0
    3.7666    0.5718    5.9853 C   0  0  0  0  0  0  0  0  0  0  0  0
    3.1144    0.8015    7.2131 C   0  0  0  0  0  0  0  0  0  0  0  0
    1.8581    1.4910    7.1851 C   0  0  0  0  0  0  0  0  0  0  0  0
    1.0948    1.4710    5.9943 C   0  0  0  0  0  0  0  0  0  0  0  0
   -0.1159    2.1796    5.9561 C   0  0  0  0  0  0  0  0  0  0  0  0
   -0.6231    2.8454    7.0511 C   0  0  0  0  0  0  0  0  0  0  0  0
    0.1682    2.8914    8.2064 C   0  0  0  0  0  0  0  0  0  0  0  0
    1.3859    2.2631    8.2573 C   0  0  0  0  0  0  0  0  0  0  0  0
   -0.6241    2.2567    5.0113 H   0  0  0  0  0  0  0  0  0  0  0  0
   -0.1544    3.4673    9.0609 H   0  0  0  0  0  0  0  0  0  0  0  0
    2.0215    2.4115    9.1172 H   0  0  0  0  0  0  0  0  0  0  0  0
    3.7365    0.3583    8.4219 C   0  0  0  0  0  0  0  0  0  0  0  0
    5.1050   -0.0101    8.3996 C   0  0  0  0  0  0  0  0  0  0  0  0
    5.7879   -0.1366    7.1648 C   0  0  0  0  0  0  0  0  0  0  0  0
    5.0585    0.0294    5.9935 C   0  0  0  0  0  0  0  0  0  0  0  0
    5.4797   -0.2978    5.0587 H   0  0  0  0  0  0  0  0  0  0  0  0
    7.1200   -0.6843    9.6122 C   0  0  0  0  0  0  0  0  0  0  0  0
    7.8430   -0.7341    8.3942 C   0  0  0  0  0  0  0  0  0  0  0  0
    7.1924   -0.4699    7.1640 C   0  0  0  0  0  0  0  0  0  0  0  0
    5.7483   -0.3305    9.6235 C   0  0  0  0  0  0  0  0  0  0  0  0
    3.0259    0.2178    9.6220 C   0  0  0  0  0  0  0  0  0  0  0  0
    5.0113   -0.3202   10.8196 C   0  0  0  0  0  0  0  0  0  0  0  0
    3.6474   -0.0928   10.8267 C   0  0  0  0  0  0  0  0  0  0  0  0
    1.9538    0.3225    9.5906 H   0  0  0  0  0  0  0  0  0  0  0  0
    5.5465   -0.5472   11.7264 H   0  0  0  0  0  0  0  0  0  0  0  0
    2.0616    1.1512   12.2929 C   0  0  0  0  0  0  0  0  0  0  0  0
    2.8050   -0.1771   12.0908 C   0  0  0  0  0  0  0  0  0  0  0  0
    1.3676    1.3469   11.4801 H   0  0  0  0  0  0  0  0  0  0  0  0
    1.4948    1.1251   13.2214 H   0  0  0  0  0  0  0  0  0  0  0  0
    2.7709    1.9750   12.3462 H   0  0  0  0  0  0  0  0  0  0  0  0
    1.7926   -1.3203   11.9365 C   0  0  0  0  0  0  0  0  0  0  0  0
    2.3123   -2.2640   11.7836 H   0  0  0  0  0  0  0  0  0  0  0  0
    1.1816   -1.4034   12.8330 H   0  0  0  0  0  0  0  0  0  0  0  0
    1.1335   -1.1533   11.0888 H   0  0  0  0  0  0  0  0  0  0  0  0
    3.6479   -0.4449   13.3403 C   0  0  0  0  0  0  0  0  0  0  0  0
    3.0005   -0.4774   14.2146 H   0  0  0  0  0  0  0  0  0  0  0  0
    4.1630   -1.3999   13.2688 H   0  0  0  0  0  0  0  0  0  0  0  0
    4.3811    0.3440   13.4927 H   0  0  0  0  0  0  0  0  0  0  0  0
    9.9222   -1.0593    7.1994 C   0  0  0  0  0  0  0  0  0  0  0  0
    9.2188   -1.0404    8.3710 C   0  0  0  0  0  0  0  0  0  0  0  0
    7.9517   -0.4844    5.9871 C   0  0  0  0  0  0  0  0  0  0  0  0
    9.3012   -0.7679    5.9729 C   0  0  0  0  0  0  0  0  0  0  0  0
   10.9756   -1.2940    7.2284 H   0  0  0  0  0  0  0  0  0  0  0  0
    9.7132   -1.2527    9.3078 H   0  0  0  0  0  0  0  0  0  0  0  0
    7.4574   -0.2474    5.0616 H   0  0  0  0  0  0  0  0  0  0  0  0
   11.2554    0.2711    4.8403 C   0  0  0  0  0  0  0  0  0  0  0  0
   10.1307   -0.7652    4.6999 C   0  0  0  0  0  0  0  0  0  0  0  0
   11.9137    0.0334    5.6712 H   0  0  0  0  0  0  0  0  0  0  0  0
   11.8526    0.3013    3.9313 H   0  0  0  0  0  0  0  0  0  0  0  0
   10.8355    1.2605    5.0110 H   0  0  0  0  0  0  0  0  0  0  0  0
   10.7338   -2.1621    4.4942 C   0  0  0  0  0  0  0  0  0  0  0  0
    9.9424   -2.9043    4.4101 H   0  0  0  0  0  0  0  0  0  0  0  0
   11.3265   -2.1838    3.5820 H   0  0  0  0  0  0  0  0  0  0  0  0
   11.3766   -2.4427    5.3239 H   0  0  0  0  0  0  0  0  0  0  0  0
    9.3110   -0.4102    3.4558 C   0  0  0  0  0  0  0  0  0  0  0  0
    9.9583   -0.4223    2.5810 H   0  0  0  0  0  0  0  0  0  0  0  0
    8.5125   -1.1303    3.2908 H   0  0  0  0  0  0  0  0  0  0  0  0
    8.8817    0.5856    3.5410 H   0  0  0  0  0  0  0  0  0  0  0  0
    8.3281   -1.2357   11.8580 C   0  0  0  0  0  0  0  0  0  0  0  0
    7.7716   -0.9837   10.8195 C   0  0  0  0  0  0  0  0  0  0  0  0
    8.8143   -1.4568   12.7608 H   0  0  0  0  0  0  0  0  0  0  0  0
   -1.7323    5.0677    7.2265 C   0  0  0  0  0  0  0  0  0  0  0  0
   -1.9621    3.5636    7.0255 C   0  0  0  0  0  0  0  0  0  0  0  0
   -1.0927    5.4583    6.4375 H   0  0  0  0  0  0  0  0  0  0  0  0
   -2.6811    5.5993    7.1972 H   0  0  0  0  0  0  0  0  0  0  0  0
   -1.2568    5.2710    8.1822 H   0  0  0  0  0  0  0  0  0  0  0  0
   -2.7173    3.3627    5.7079 C   0  0  0  0  0  0  0  0  0  0  0  0
   -2.8906    2.3074    5.5086 H   0  0  0  0  0  0  0  0  0  0  0  0
   -3.6857    3.8554    5.7680 H   0  0  0  0  0  0  0  0  0  0  0  0
   -2.1754    3.7967    4.8707 H   0  0  0  0  0  0  0  0  0  0  0  0
   -2.8373    3.0142    8.1615 C   0  0  0  0  0  0  0  0  0  0  0  0
   -3.8082    3.5052    8.1570 H   0  0  0  0  0  0  0  0  0  0  0  0
   -2.9919    1.9447    8.0333 H   0  0  0  0  0  0  0  0  0  0  0  0
   -2.3791    3.1786    9.1328 H   0  0  0  0  0  0  0  0  0  0  0  0
   -4.7429   -0.4993    1.3900 C   0  0  0  0  0  0  0  0  0  0  0  0
   -5.3336   -0.9612    2.5406 C   0  0  0  0  0  0  0  0  0  0  0  0
   -4.6134   -0.9810    3.7317 C   0  0  0  0  0  0  0  0  0  0  0  0
   -3.2923   -0.6037    3.7360 C   0  0  0  0  0  0  0  0  0  0  0  0
   -5.2867   -0.5528    0.4595 H   0  0  0  0  0  0  0  0  0  0  0  0
   -6.3500   -1.3262    2.5180 H   0  0  0  0  0  0  0  0  0  0  0  0
   -5.0797   -1.3335    4.6400 H   0  0  0  0  0  0  0  0  0  0  0  0
   -2.7265   -0.7013    4.6498 H   0  0  0  0  0  0  0  0  0  0  0  0
    4.6920   -0.7313   -1.4575 C   0  0  0  0  0  0  0  0  0  0  0  0
    5.2482   -1.1147   -2.6533 C   0  0  0  0  0  0  0  0  0  0  0  0
    4.5339   -0.9491   -3.8366 C   0  0  0  0  0  0  0  0  0  0  0  0
    3.2478   -0.4674   -3.7950 C   0  0  0  0  0  0  0  0  0  0  0  0
    5.2257   -0.9275   -0.5404 H   0  0  0  0  0  0  0  0  0  0  0  0
    6.2315   -1.5612   -2.6742 H   0  0  0  0  0  0  0  0  0  0  0  0
    4.9739   -1.2396   -4.7793 H   0  0  0  0  0  0  0  0  0  0  0  0
    2.6799   -0.4210   -4.7114 H   0  0  0  0  0  0  0  0  0  0  0  0
  1  2  4  0  0  0  0
  2  3  1  0  0  0  0
  3  4  1  0  0  0  0
  4  5  4  0  0  0  0
  1  6  1  0  0  0  0
  5  6  1  0  0  0  0
  6  7  4  0  0  0  0
  7  8  1  0  0  0  0
  8  9  4  0  0  0  0
  5 10  4  0  0  0  0
  9 10  1  0  0  0  0
 10 11  4  0  0  0  0
 11 12  4  0  0  0  0
  4 13  4  0  0  0  0
 12 13  4  0  0  0  0
 11 14  1  0  0  0  0
 13 15  4  0  0  0  0
 15 16  4  0  0  0  0
  3 17  4  0  0  0  0
 16 17  1  0  0  0  0
 17 18  1  0  0  0  0
 18 19  4  0  0  0  0
  2 20  4  0  0  0  0
 19 20  1  0  0  0  0
 20 21  4  0  0  0  0
 21 22  4  0  0  0  0
  1 23  4  0  0  0  0
 22 23  4  0  0  0  0
 21 24  1  0  0  0  0
 23 25  4  0  0  0  0
  7 26  1  0  0  0  0
 25 26  4  0  0  0  0
 27 28  4  0  0  0  0
 16 29  4  0  0  0  0
 28 29  4  0  0  0  0
 15 30  4  0  0  0  0
 27 30  4  0  0  0  0
 27 31  1  0  0  0  0
 28 32  1  0  0  0  0
 29 33  1  0  0  0  0
 12 34  1  0  0  0  0
 30 35  1  0  0  0  0
 34 35  4  0  0  0  0
 35 36  1  0  0  0  0
 36 37  4  0  0  0  0
 37 38  1  0  0  0  0
 34 39  1  0  0  0  0
 38 39  4  0  0  0  0
 39 40  4  0  0  0  0
 40 41  4  0  0  0  0
 41 42  4  0  0  0  0
 38 43  4  0  0  0  0
 42 43  2  0  0  0  0
 40 44  1  0  0  0  0
 42 45  1  0  0  0  0
 43 46  1  0  0  0  0
 37 47  4  0  0  0  0
 47 48  4  0  0  0  0
 48 49  4  0  0  0  0
 36 50  4  0  0  0  0
 49 50  4  0  0  0  0
 50 51  1  0  0  0  0
 52 53  4  0  0  0  0
 49 54  1  0  0  0  0
 53 54  4  0  0  0  0
 48 55  4  0  0  0  0
 52 55  4  0  0  0  0
 47 56  4  0  0  0  0
 55 57  4  0  0  0  0
 56 58  4  0  0  0  0
 57 58  4  0  0  0  0
 56 59  1  0  0  0  0
 57 60  1  0  0  0  0
 58 62  1  0  0  0  0
 61 62  1  0  0  0  0
 61 63  1  0  0  0  0
 61 64  1  0  0  0  0
 61 65  1  0  0  0  0
 62 66  1  0  0  0  0
 66 67  1  0  0  0  0
 66 68  1  0  0  0  0
 66 69  1  0  0  0  0
 62 70  1  0  0  0  0
 70 71  1  0  0  0  0
 70 72  1  0  0  0  0
 70 73  1  0  0  0  0
 53 75  4  0  0  0  0
 74 75  2  0  0  0  0
 54 76  4  0  0  0  0
 74 77  4  0  0  0  0
 76 77  4  0  0  0  0
 74 78  1  0  0  0  0
 75 79  1  0  0  0  0
 76 80  1  0  0  0  0
 77 82  1  0  0  0  0
 81 82  1  0  0  0  0
 81 83  1  0  0  0  0
 81 84  1  0  0  0  0
 81 85  1  0  0  0  0
 82 86  1  0  0  0  0
 86 87  1  0  0  0  0
 86 88  1  0  0  0  0
 86 89  1  0  0  0  0
 82 90  1  0  0  0  0
 90 91  1  0  0  0  0
 90 92  1  0  0  0  0
 90 93  1  0  0  0  0
 52 95  1  0  0  0  0
 94 95  3  0  0  0  0
 94 96  1  0  0  0  0
 41 98  1  0  0  0  0
 97 98  1  0  0  0  0
 97 99  1  0  0  0  0
 97100  1  0  0  0  0
 97101  1  0  0  0  0
 98102  1  0  0  0  0
102103  1  0  0  0  0
102104  1  0  0  0  0
102105  1  0  0  0  0
 98106  1  0  0  0  0
106107  1  0  0  0  0
106108  1  0  0  0  0
106109  1  0  0  0  0
110111  4  0  0  0  0
 26112  4  0  0  0  0
111112  4  0  0  0  0
 25113  4  0  0  0  0
110113  4  0  0  0  0
110114  1  0  0  0  0
111115  1  0  0  0  0
112116  1  0  0  0  0
 22117  1  0  0  0  0
113118  1  0  0  0  0
117118  4  0  0  0  0
118119  1  0  0  0  0
119120  4  0  0  0  0
120121  1  0  0  0  0
117122  1  0  0  0  0
121122  4  0  0  0  0
122123  4  0  0  0  0
123124  4  0  0  0  0
124125  4  0  0  0  0
121126  4  0  0  0  0
125126  2  0  0  0  0
123127  1  0  0  0  0
125128  1  0  0  0  0
126129  1  0  0  0  0
120130  4  0  0  0  0
130131  4  0  0  0  0
131132  4  0  0  0  0
119133  4  0  0  0  0
132133  4  0  0  0  0
133134  1  0  0  0  0
135136  4  0  0  0  0
132137  1  0  0  0  0
136137  4  0  0  0  0
131138  4  0  0  0  0
135138  4  0  0  0  0
130139  4  0  0  0  0
138140  4  0  0  0  0
139141  4  0  0  0  0
140141  4  0  0  0  0
139142  1  0  0  0  0
140143  1  0  0  0  0
141145  1  0  0  0  0
144145  1  0  0  0  0
144146  1  0  0  0  0
144147  1  0  0  0  0
144148  1  0  0  0  0
145149  1  0  0  0  0
149150  1  0  0  0  0
149151  1  0  0  0  0
149152  1  0  0  0  0
145153  1  0  0  0  0
153154  1  0  0  0  0
153155  1  0  0  0  0
153156  1  0  0  0  0
136158  4  0  0  0  0
157158  2  0  0  0  0
137159  4  0  0  0  0
157160  4  0  0  0  0
159160  4  0  0  0  0
157161  1  0  0  0  0
158162  1  0  0  0  0
159163  1  0  0  0  0
160165  1  0  0  0  0
164165  1  0  0  0  0
164166  1  0  0  0  0
164167  1  0  0  0  0
164168  1  0  0  0  0
165169  1  0  0  0  0
169170  1  0  0  0  0
169171  1  0  0  0  0
169172  1  0  0  0  0
165173  1  0  0  0  0
173174  1  0  0  0  0
173175  1  0  0  0  0
173176  1  0  0  0  0
135178  1  0  0  0  0
177178  3  0  0  0  0
177179  1  0  0  0  0
124181  1  0  0  0  0
180181  1  0  0  0  0
180182  1  0  0  0  0
180183  1  0  0  0  0
180184  1  0  0  0  0
181185  1  0  0  0  0
185186  1  0  0  0  0
185187  1  0  0  0  0
185188  1  0  0  0  0
181189  1  0  0  0  0
189190  1  0  0  0  0
189191  1  0  0  0  0
189192  1  0  0  0  0
 18193  4  0  0  0  0
193194  2  0  0  0  0
194195  4  0  0  0  0
 19196  4  0  0  0  0
195196  4  0  0  0  0
193197  1  0  0  0  0
194198  1  0  0  0  0
195199  1  0  0  0  0
196200  1  0  0  0  0
  8201  4  0  0  0  0
201202  2  0  0  0  0
202203  4  0  0  0  0
  9204  4  0  0  0  0
203204  4  0  0  0  0
201205  1  0  0  0  0
202206  1  0  0  0  0
203207  1  0  0  0  0
204208  1  0  0  0  0
M  END
